! Modeling soot particles as stable radicals: a chemical kinetic study on formation and oxidation. Part I. Soot formation in ethylene laminar premixed and counterflow diffusion flames.
! Andrea Nobili, Alberto Cuoci, Warumporn Pejpichestakul, Matteo Pelucchi, Carlo Cavallotti, Tiziano Faravelli*
! Combustion and Flame (2021)
! Correspondence to: tiziano.faravelli@polimi.it
! CRECK mechanisms available here: http://creckmodeling.chem.polimi.it/menu-kinetics/menu-kinetics-detailed-mechanisms
THERMO
300.   1000.   4000.
C2H4                    C   2H   4          G    300.00   4000.00 1000.00      1
 .399182724E+01 .104833908E-01-.371721342E-05 .594628366E-09-.353630386E-13    2
 .426865851E+04-.269081762E+00 .395920063E+01-.757051373E-02 .570989993E-04    3
-.691588352E-07 .269884190E-10 .508977598E+04 .409730213E+01                   4
CH4                     C   1H   4          G    300.00   4000.00 1000.00      1
 .165326226E+01 .100263099E-01-.331661238E-05 .536483138E-09-.314696758E-13    2
-.100095936E+05 .990506283E+01 .514911468E+01-.136622009E-01 .491453921E-04    3
-.484246767E-07 .166603441E-10-.102465983E+05-.463848842E+01                   4
H2                ATcT3EH   2    0    0    0G    200.00   6000.00 1000.00      1
 2.90207649E+00 8.68992581E-04-1.65864430E-07 1.90851899E-11-9.31121789E-16    2
-7.97948726E+02-8.45591320E-01 2.37694204E+00 7.73916922E-03-1.88735073E-05    3
 1.95517114E-08-7.17095663E-12-9.21173081E+02 5.47184736E-01 0.00000000E+00    4
O2                ATcT3EO   2    0    0    0G    200.00   6000.00 1000.00      1
 3.65980488E+00 6.59877372E-04-1.44158172E-07 2.14656037E-11-1.36503784E-15    2
-1.21603048E+03 3.42074148E+00 3.78498258E+00-3.02002233E-03 9.92029171E-06    3
-9.77840434E-09 3.28877702E-12-1.06413589E+03 3.64780709E+00 0.00000000E+00    4
H2O2              ATcT3EH   2O   2    0    0G    200.00   6000.00 1000.00      1
 4.54017480E+00 4.15970971E-03-1.30876777E-06 2.00823615E-10-1.15509243E-14    2
-1.79514029E+04 8.55881745E-01 4.23854160E+00-2.49610911E-04 1.59857901E-05    3
-2.06919945E-08 8.29766320E-12-1.76486003E+04 3.58850097E+00-1.62917334E+04    4
H                 ATcT3EH   1    0    0    0G    200.00   6000.00 1000.00      1
 2.49985211E+00 2.34582548E-07-1.16171641E-10 2.25708298E-14-1.52992005E-18    2
 2.54738024E+04-4.45864645E-01 2.49975925E+00 6.73824499E-07 1.11807261E-09    3
-3.70192126E-12 2.14233822E-15 2.54737665E+04-4.45574009E-01 2.62191345E+04    4
HO2               ATcT3EH   1O   2    0    0G    200.00   6000.00 1000.00      1
 4.10564010E+00 2.04046836E-03-3.65877562E-07 1.85973044E-11 4.98818315E-16    2
 4.32898769E+01 3.30808126E+00 4.26251250E+00-4.45642032E-03 2.05164934E-05    3
-2.35794011E-08 9.05614257E-12 2.62442356E+02 3.88223684E+00 1.47417835E+03    4
H2O               ATcT3EH   2O   1    0    0G    200.00   6000.00 1000.00      1
 2.73117512E+00 2.95136995E-03-8.35359785E-07 1.26088593E-10-8.40531676E-15    2
-2.99169082E+04 6.55183000E+00 4.20147551E+00-2.05583546E-03 6.56547207E-06    3
-5.52906960E-09 1.78282605E-12-3.02950066E+04-8.60610906E-01-2.90858262E+04    4
OH                ATcT3EH   1O   1    0    0G    200.00   6000.00 1000.00      1
 2.84581721E+00 1.09723818E-03-2.89121101E-07 4.09099910E-11-2.31382258E-15    2
 3.71706610E+03 5.80339915E+00 3.97585165E+00-2.28555291E-03 4.33442882E-06    3
-3.59926640E-09 1.26706930E-12 3.39341137E+03-3.55397262E-02 4.50901087E+03    4
O                 ATcT3EO   1    0    0    0G    200.00   6000.00 1000.00      1
 2.55160087E+00-3.83085457E-05 8.43197478E-10 4.01267136E-12-4.17476574E-16    2
 2.92287628E+04 4.87617014E+00 3.15906526E+00-3.21509999E-03 6.49255543E-06    3
-5.98755115E-09 2.06876117E-12 2.91298453E+04 2.09078344E+00 2.99753606E+04    4
HO2CHO     6/26/95 THERMC   1H   2O   3    0G   300.000  5000.000 1378.00     21
 9.87503878E+00 4.64663708E-03-1.67230522E-06 2.68624413E-10-1.59595232E-14    2
-3.80502496E+04-2.24939155E+01 2.42464726E+00 2.19706380E-02-1.68705546E-05    3
 6.25612194E-09-9.11645843E-13-3.54828006E+04 1.75027796E+01                   4
CH3O                    C   1H   3O   1     G    300.00   4000.00 1000.00      1
 .475779238E+01 .744142474E-02-.269705176E-05 .438090504E-09-.263537098E-13    2
 .390139164E+03-.196680028E+01 .371180502E+01-.280463306E-02 .376550971E-04    3
-.473072089E-07 .186588420E-10 .130772484E+04 .657240864E+01                   4
CH2O                    C   1H   2O   1     G    300.00   4000.00 1000.00      1
 .316952665E+01 .619320560E-02-.225056366E-05 .365975660E-09-.220149458E-13    2
-.145486831E+05 .604207898E+01 .479372312E+01-.990833322E-02 .373219990E-04    3
-.379285237E-07 .131772641E-10-.143791953E+05 .602798058E+00                   4
CH3                     C   1H   3          G    300.00   4000.00 1000.00      1
 .297812060E+01 .579785200E-02-.197558000E-05 .307297900E-09-.179174160E-13    2
 .165095130E+05 .472247990E+01 .365717970E+01 .212659790E-02 .545838830E-05    3
-.661810030E-08 .246570740E-11 .164227160E+05 .167353540E+01                   4
CH2OH                   C   1H   3O   1     G    300.00   4000.00 1000.00      1
 .509312037E+01 .594758550E-02-.206496524E-05 .323006703E-09-.188125052E-13    2
-.405813228E+04-.184690613E+01 .447832317E+01-.135069687E-02 .278483707E-04    3
-.364867397E-07 .147906775E-10-.352476728E+04 .330911984E+01                   4
CH3O2H                  C   1H   4O   2     G    300.00   4000.00 1000.00      1
 .776538058E+01 .861499712E-02-.298006935E-05 .468638071E-09-.275339255E-13    2
-.182979984E+05-.143992663E+02 .290540897E+01 .174994735E-01 .528243630E-05    3
-.252827275E-07 .134368212E-10-.168894632E+05 .113741987E+02                   4
CH3O2                   C   1H   3O   2     G    300.00   4000.00 1000.00      1
 .480390863E+01 .995844638E-02-.385301026E-05 .684740497E-09-.458402955E-13    2
-.747135460E+03 .145281400E+01 .362497097E+01 .359397933E-02 .226538097E-04    3
-.295391947E-07 .111977570E-10 .793040410E+02 .996382194E+01                   4
HOCHO             L 8/88H   2C   1O   2    0G   200.000  6000.00  1000.00      1
 0.46138316E+01 0.64496364E-02-0.22908251E-05 0.36716047E-09-0.21873675E-13    2
-0.47514850E+05 0.84788383E+00 0.38983616E+01-0.35587795E-02 0.35520538E-04    3
-0.43849959E-07 0.17107769E-10-0.46770609E+05 0.73495397E+01-0.45531246E+05    4
CH3OH                   C   1H   4O   1     G    300.00   4000.00 1000.00      1
 .352726795E+01 .103178783E-01-.362892944E-05 .577448016E-09-.342182632E-13    2
-.260028834E+05 .516758693E+01 .565851051E+01-.162983419E-01 .691938156E-04    3
-.758372926E-07 .280427550E-10-.256119736E+05-.897330508E+00                   4
HCOOH                   C   1H   2O   2     G    300.00   4000.00 1000.00      1
 .461383160E+01 .644963640E-02-.229082510E-05 .367160470E-09-.218736750E-13    2
-.453303180E+05 .847883830E+00 .389836160E+01-.355877950E-02 .355205380E-04    3
-.438499590E-07 .171077690E-10-.467785744E+05 .734953970E+01                   4
CH2(S)                  C   1H   2          G    300.00   4000.00 1000.00      1
 .313501686E+01 .289593926E-02-.816668090E-06 .113572697E-09-.636262835E-14    2
 .505040504E+05 .406030621E+01 .419331325E+01-.233105184E-02 .815676451E-05    3
-.662985981E-08 .193233199E-11 .503662246E+05-.746734310E+00                   4
C                 L 7/88C   1     0    0   0G   200.000  6000.00  1000.00      1
 0.26055830E+01-0.19593434E-03 0.10673722E-06-0.16423940E-10 0.81870580E-15    2
 0.85411742E+05 0.41923868E+01 0.25542395E+01-0.32153772E-03 0.73379223E-06    3
-0.73223487E-09 0.26652144E-12 0.85442681E+05 0.45313085E+01 0.86195097E+05    4
HCO3H                   C   1H   2O   3     G    300.00   4000.00 1378.00      1
 .987503581E+01 .464663708E-02-.167230522E-05 .268624413E-09-.159595232E-13    2
-.380502456E+05-.224938942E+02 .242464726E+01 .219706380E-01-.168705546E-04    3
 .625612194E-08-.911645843E-12-.354828006E+05 .175027796E+02                   4
CO2               ATcT3EC   1O   2    0    0G    200.00   6000.00 1000.00      1
 4.63537470E+00 2.74559459E-03-9.98282389E-07 1.61013606E-10-9.22018642E-15    2
-4.90203677E+04-1.92887630E+00 2.20664321E+00 1.00970086E-02-9.96338809E-06    3
 5.47155623E-09-1.27733965E-12-4.83529864E+04 1.05261943E+01-4.73241678E+04    4
CH2                     C   1H   2          G    300.00   4000.00 1000.00      1
 .314631886E+01 .303671259E-02-.996474439E-06 .150483580E-09-.857335515E-14    2
 .460412605E+05 .472341711E+01 .371757846E+01 .127391260E-02 .217347251E-05    3
-.348858500E-08 .165208866E-11 .458723866E+05 .175297945E+01                   4
CO                ATcT3EC   1O   1    0    0G    200.00   6000.00 1000.00      1
 3.03397274E+00 1.37328118E-03-4.96445087E-07 8.10281447E-11-4.85331749E-15    2
-1.42586044E+04 6.10076092E+00 3.59508377E+00-7.21196937E-04 1.28238234E-06    3
 6.52429293E-10-8.21714806E-13-1.43448968E+04 3.44355598E+00-1.32928623E+04    4
HCO               ATcT3EC   1H   1O   1    0G    200.00   6000.00 1000.00      1
 3.85781113E+00 2.64113950E-03-7.44177294E-07 1.23313230E-10-8.88958718E-15    2
 3.61642883E+03 3.92451197E+00 3.97074749E+00-1.49121608E-03 9.54041776E-06    3
-8.82720349E-09 2.67645129E-12 3.84203291E+03 4.44660361E+00 5.02774557E+03    4
HCO3                    C   1H   1O   3     G    300.00   4000.00 1000.00      1
 .726425669E+01 .532196974E-02-.196520055E-05 .323182996E-09-.195989250E-13    2
-.159242239E+05-.103647520E+02 .364808935E+01 .957717212E-02 .755287366E-05    3
-.181264650E-07 .827293980E-11-.146544449E+05 .967735548E+01                   4
CH                      C   1H   1          G    300.00   4000.00 1000.00      1
 .252093690E+01 .176536390E-02-.461476600E-06 .592896750E-10-.334745010E-14    2
 .709948780E+05 .740518290E+01 .348975830E+01 .324321600E-03-.168997510E-05    3
 .316284200E-08-.140618030E-11 .706607550E+05 .208428410E+01                   4
OCHO              ATCT/AC  1 O  2 H  1    0 G   200.000  6000.000 1000.00      1
 4.14394211E+00 5.59738818E-03-1.99794019E-06 3.16179193E-10-1.85614483E-14    2
-1.72459887E+04 5.07778617E+00 4.68825921E+00-4.14871834E-03 2.55066010E-05    3
-2.84473900E-08 1.04422559E-11-1.69867041E+04 4.28426480E+00-1.55992356E+04    4
HOCO              T05/06H  1 C  1 O  2    0 G   200.000  6000.00   1000.00     1
 5.39206152E+00 4.11221455E-03-1.48194900E-06 2.39875460E-10-1.43903104E-14    2
-2.38606717E+04-2.23529091E+00 2.92207919E+00 7.62453859E-03 3.29884437E-06    3
-1.07135205E-08 5.11587057E-12-2.30281524E+04 1.12925886E+01-2.18076591E+04    4
CH2OHCHO                C   2H   4O   2     G    300.00   4000.00 1000.00      1
 .691088832E+01 .123280849E-01-.438373062E-05 .703055164E-09-.419009846E-13    2
-.400211587E+05-.696132551E+01 .614926095E+01-.596828114E-02 .596003337E-04    3
-.716663578E-07 .274014411E-10-.388356849E+05 .186644598E+01                   4
PC2H4OH                 C   2H   5O   1     G    300.00   4000.00 1000.00      1
 .701348674E+01 .120204391E-01-.421992012E-05 .670675981E-09-.397135273E-13    2
-.616161779E+04-.862052409E+01 .420954137E+01 .912964578E-02 .247462263E-04    3
-.392945764E-07 .166541312E-10-.491511371E+04 .830445413E+01                   4
HO2CH2CHO               C   2H   4O   3     G    300.00   4000.00 1000.00      1
 .127662941E+02 .102143437E-01-.363547001E-05 .583491588E-09-.347179974E-13    2
-.753528536E+05-.396511752E+02 .280443702E+01 .210851644E-01 .335863233E-04    3
-.702669107E-07 .326849274E-10-.720649998E+05 .151180675E+02                   4
CH3OCHO                 C   2H   4O   2     G    300.00   4000.00  700.00      1
 .502910660E+01-.287377520E-01 .615808971E-04-.298073518E-07 .429774802E-11    2
-.407046731E+05 .182412180E+02 .000000000E+00 .000000000E+00 .000000000E+00    3
 .288411216E-07-.166481354E-10-.400005982E+05 .407099939E+02                   4
CH3CO2H                 C   2H   4O   2     G    300.00   4000.00 1000.00      1
 .767084601E+01 .135152602E-01-.525874333E-05 .893184479E-09-.553180543E-13    2
-.557560970E+05-.154677315E+02 .278950201E+01 .999941719E-02 .342572245E-04    3
-.509031329E-07 .206222185E-10-.534752488E+05 .141053123E+02                   4
CH3CHO                  C   2H   4O   1     G    300.00   4000.00 1000.00      1
 .540411080E+01 .117230590E-01-.422631370E-05 .683724510E-09-.409848630E-13    2
-.225931220E+05-.348079170E+01 .472945950E+01-.319328580E-02 .475349210E-04    3
-.574586110E-07 .219311120E-10-.215728780E+05 .410301590E+01                   4
C2H5O2H                 C   2H   6O   2     G    300.00   4000.00 1000.00      1
 .958691079E+01 .148603589E-01-.529787964E-05 .847317148E-09-.503436325E-13    2
-.238367900E+05-.228310676E+02 .414672004E+01 .978668137E-02 .491492257E-04    3
-.742532076E-07 .311169441E-10-.214671219E+05 .984024999E+01                   4
C2H4O1-2                C   2H   4O   1     G    300.00   4000.00 1000.00      1
 .548876410E+01 .120461900E-01-.433369310E-05 .700283110E-09-.419490880E-13    2
-.918042510E+04-.707996050E+01 .375905320E+01-.944121800E-02 .803097210E-04    3
-.100807880E-06 .400399210E-10-.756081430E+04 .784974750E+01                   4
CH3CO3H                 C   2H   4O   3     G    300.00   4000.00 1000.00      1
 .127662941E+02 .102143437E-01-.363547001E-05 .583491588E-09-.347179974E-13    2
-.753528536E+05-.396511752E+02 .280443702E+01 .210851644E-01 .335863233E-04    3
-.702669107E-07 .326849274E-10-.720649998E+05 .151180675E+02                   4
C2H6                    C   2H   6          G    300.00   4000.00 1000.00      1
 .404666411E+01 .153538802E-01-.547039485E-05 .877826544E-09-.523167531E-13    2
-.124473499E+05-.968698313E+00 .429142572E+01-.550154901E-02 .599438458E-04    3
-.708466469E-07 .268685836E-10-.115222056E+05 .266678994E+01                   4
C2H5OH                  C   2H   6O   1     G    300.00   4000.00 1000.00      1
 .656243650E+01 .152042220E-01-.538967950E-05 .862250110E-09-.512897870E-13    2
-.315256210E+05-.947302020E+01 .485869570E+01-.374017260E-02 .695553780E-04    3
-.886547960E-07 .351688350E-10-.299961320E+05 .480185450E+01                   4
C2H5O2                  C   2H   5O   2     G    300.00   4000.00 1000.00      1
 .888872432E+01 .135833179E-01-.491116949E-05 .792343362E-09-.473525704E-13    2
-.744107388E+04-.190789836E+02 .450099327E+01 .687965342E-02 .474143971E-04    3
-.692287127E-07 .287395324E-10-.539547911E+04 .791490068E+01                   4
C2H4O2H                 C   2H   5O   2     G    300.00   4000.00 1000.00      1
 .941379980E+01 .133542122E-01-.468067639E-05 .743230845E-09-.439824231E-13    2
 .198459602E+04-.224516643E+02 .507456388E+01 .132389561E-01 .253758646E-04    3
-.438089546E-07 .189061540E-10 .371063204E+04 .272289544E+01                   4
C2H5                    C   2H   5          G    300.00   4000.00 1000.00      1
 .432195633E+01 .123930542E-01-.439680960E-05 .703519917E-09-.418435239E-13    2
 .121759475E+05 .171103809E+00 .424185905E+01-.356905235E-02 .482667202E-04    3
-.585401009E-07 .225804514E-10 .129690344E+05 .444703782E+01                   4
O2C2H4O2H               C   2H   5O   4     G    300.00   4000.00 1387.00      1
 .145471032E+02 .123393823E-01-.427259469E-05 .668763337E-09-.390196721E-13    2
-.196338761E+05-.408784236E+02 .590031872E+01 .305658528E-01-.185905950E-04    3
 .567871605E-08-.702799577E-12-.163916571E+05 .633051038E+01                   4
C2H5O      8/12/15      C   2H   5O   1    0G   300.000  5000.000 1467.000    11
 8.19120635E+00 1.10391986E-02-3.75270536E-06 5.80275784E-10-3.35735146E-14    2
-5.66847208E+03-1.90131344E+01 2.90353584E+00 1.77256708E-02-2.69624757E-06    3
-3.45830533E-09 1.25224784E-12-3.28930290E+03 1.13545591E+01                   4
SC2H4OH                 C   2H   5O   1     G    300.00   4000.00 1000.00      1
 .635842302E+01 .124356276E-01-.433096839E-05 .684530381E-09-.403713238E-13    2
-.953018581E+04-.605106112E+01 .422283250E+01 .512174798E-02 .348386522E-04    3
-.491943637E-07 .201183723E-10-.835622088E+04 .801675700E+01                   4
C2H3O1-2          A 1/05C  2 H  3 O  1    0 G   200.000  6000.00  1000.00      1
 5.60158035E+00 9.17613962E-03-3.28028902E-06 5.27903888E-10-3.15362241E-14    2
 1.71446252E+04-5.47228512E+00 3.58349017E+00-6.02275805E-03 6.32426867E-05    3
-8.18540707E-08 3.30444505E-11 1.85681353E+04 9.59725926E+00 1.97814471E+04    4
CH2CO                   C   2H   2O   1     G    300.00   4000.00 1000.00      1
 .575871449E+01 .635124053E-02-.225955361E-05 .362321512E-09-.215855515E-13    2
-.808533464E+04-.496490444E+01 .213241136E+01 .181319455E-01-.174093315E-04    3
 .935336040E-08-.201724844E-11-.714808520E+04 .133807969E+02                   4
CHOCHO                  C   2H   2O   2     G    300.00   4000.00 1000.00      1
 .872506895E+01 .633096819E-02-.235574814E-05 .389782853E-09-.237486912E-13    2
-.291024131E+05-.203903909E+02 .468412461E+01 .478012819E-03 .426390768E-04    3
-.579018239E-07 .231669328E-10-.271985007E+05 .451187184E+01                   4
CH3CO3                  C   2H   3O   3     G    300.00   4000.00 1000.00      1
 .102188027E+02 .888408630E-02-.222887620E-05 .166265570E-09 .000000000E+00    2
-.256023886E+05-.219354293E+02 .384065500E+01 .218595100E-01-.904528040E-05    3
 .385393800E-09 .000000000E+00-.234946000E+05 .124829900E+02                   4
C2H3                    C   2H   3          G    300.00   4000.00 1000.00      1
 .415026763E+01 .754021341E-02-.262997847E-05 .415974048E-09-.245407509E-13    2
 .338566380E+05 .172812235E+01 .336377642E+01 .265765722E-03 .279620704E-04    3
-.372986942E-07 .151590176E-10 .344749589E+05 .791510092E+01                   4
CH2CHO                  C   2H   3O   1     G    300.00   4000.00 1000.00      1
 .653928338E+01 .780238629E-02-.276413612E-05 .442098906E-09-.262954290E-13    2
-.118858659E+04-.872091393E+01 .279502600E+01 .101099472E-01 .161750645E-04    3
-.310303145E-07 .139436139E-10 .162944975E+03 .123646657E+02                   4
CH3CO                   C   2H   3O   1     G    300.00   4000.00 1000.00      1
 .531371650E+01 .917377930E-02-.332203860E-05 .539474560E-09-.324523680E-13    2
-.364504140E+04-.167575580E+01 .403587050E+01 .877294870E-03 .307100100E-04    3
-.392475650E-07 .152968690E-10-.268207380E+04 .786176820E+01                   4
CH2COOH                 C   2H   3O   2     G  0300.000  5000.000 1000.        1
 0.93029661E+01 0.69815558E-02-0.17180930E-05 0.21747887E-09-0.11452205E-13    2
-0.33653477E+05-0.23130653E+02 0.12598374E+00 0.34687348E-01-0.34489818E-04    3
 0.18876753E-07-0.44256933E-11-0.31187451E+05 0.23825567E+02                   4
CH3OCO     5/ 8/ 3 THERMC   2H   3O   2    0G   300.000  5000.000 1601.000    21
 9.73659803E+00 7.42432713E-03-2.65641779E-06 4.25031143E-10-2.51824924E-14    2
-2.36015721E+04-2.36353471E+01 4.16215406E+00 1.38037511E-02-3.08486109E-07    3
-4.56430814E-09 1.46909632E-12-2.10130301E+04 8.64301044E+00                   4
C2H2                    C   2H   2          G    300.00   4000.00 1000.00      1
 .465878489E+01 .488396667E-02-.160828888E-05 .246974544E-09-.138605959E-13    2
 .257594042E+05-.399838194E+01 .808679682E+00 .233615762E-01-.355172234E-04    3
 .280152958E-07-.850075165E-11 .264289808E+05 .139396761E+02                   4
C2H                     C   2H   1          G    300.00   4000.00 1000.00      1
 .366270248E+01 .382492252E-02-.136632500E-05 .213455040E-09-.123216848E-13    2
 .671683790E+05 .392205792E+01 .289867676E+01 .132988489E-01-.280733327E-04    3
 .289484755E-07-.107502351E-10 .670616050E+05 .618547632E+01                   4
HCCO                    C   2H   1O   1     G    300.00   4000.00 1000.00      1
 .591479333E+01 .371408730E-02-.130137010E-05 .206473345E-09-.121476759E-13    2
 .193596301E+05-.550567269E+01 .187607969E+01 .221205418E-01-.358869325E-04    3
 .305402541E-07-.101281069E-10 .201633840E+05 .136968290E+02                   4
IC3H7OH                 C   3H   8O   1     G    300.00   4000.00 1000.00      1
 .964183701E+01 .200230715E-01-.711967189E-05 .114138950E-08-.679935249E-13    2
-.374835623E+05-.256288343E+02 .430755345E+01 .102582798E-01 .619565411E-04    3
-.902973802E-07 .373936384E-10-.349249212E+05 .755995822E+01                   4
C3H7OOH                 C   3H   8O   2     G    300.00   4000.00 1000.00      1
 .104115631E+02 .213763889E-01-.755819870E-05 .120207180E-08-.711798090E-13    2
-.268935445E+05-.235428789E+02 .708977756E+01-.486163264E-02 .103253531E-03    3
-.133200956E-06 .530799252E-10-.244194556E+05 .174859215E+01                   4
C3H6OH2-1  8/ 9/ 4 THERMC   3H   7O   1    0G   300.000  5000.000 1392.000    31
 1.12222277E+01 1.36444398E-02-4.51406709E-06 7.10523275E-10-4.22690392E-14    2
-1.75350136E+04-3.18911926E+01 1.09670360E+00 3.80727565E-02-2.75022497E-05    3
 1.07477493E-08-1.74895773E-12-1.40764487E+04 2.22475799E+01                   4
IC3H7O2                 C   3H   7O   2     G    300.00   4000.00 1392.00      1
 .132610651E+02 .162501084E-01-.558631798E-05 .870057473E-09-.505849469E-13    2
-.131937089E+05-.421023499E+02 .103495454E+01 .469942369E-01-.366525520E-04    3
 .157084173E-07-.281956117E-11-.906344820E+04 .229566921E+02                   4
IC3-QOOH                C   3H   7O   2     G    300.00   4000.00 1399.00      1
 .155030898E+02 .139802008E-01-.481811216E-05 .751835399E-09-.437743118E-13    2
-.741643030E+04-.523911482E+02-.184042862E+00 .564670638E-01-.501611253E-04    3
 .230526863E-07-.423866481E-11-.252333896E+04 .298354826E+02                   4
CH2CH2CHO               C   3H   5O   1    0G   300.000  5000.000 1437.000    21
 1.00673122E+01 1.14971005E-02-3.90137798E-06 6.03029101E-10-3.48958224E-14    2
-2.75080876E+03-2.58818404E+01 2.55799036E+00 2.23391941E-02-4.89741478E-06    3
-3.58874384E-09 1.47175030E-12 4.53127696E+02 1.67016285E+01                   4
C3H6O                   C   3H   6O   1     G    300.00   4000.00 1000.00      1
 .801491079E+01 .173919953E-01-.626027968E-05 .101188256E-08-.606239111E-13    2
-.151980838E+05-.188279964E+02 .342806676E+01 .625176642E-02 .613196311E-04    3
-.860387185E-07 .351371393E-10-.128446646E+05 .104244994E+02                   4
C2H5CHO                 C   3H   6O   1     G    300.00   4000.00 1000.00      1
 .744085690E+01 .177301764E-01-.634081568E-05 .102040803E-08-.609461714E-13    2
-.260055814E+05-.144195446E+02 .424529681E+01 .668296706E-02 .493337933E-04    3
-.671986124E-07 .267262347E-10-.241473007E+05 .690738560E+01                   4
C3H8                    C   3H   8          G    300.00   4000.00 1000.00      1
 .666919760E+01 .206108751E-01-.736512349E-05 .118434262E-08-.706914630E-13    2
-.162754066E+05-.131943379E+02 .421093013E+01 .170886504E-02 .706530164E-04    3
-.920060565E-07 .364618453E-10-.143810883E+05 .561004451E+01                   4
C3H5O                   C   3H   5O   1     G    300.00   4000.00 1402.00      1
 .102638186E+02 .117609932E-01-.389837957E-05 .592650815E-09-.338867417E-13    2
 .725938472E+04-.275108651E+02 .824068673E+00 .346749909E-01-.251786795E-04    3
 .956781953E-08-.148085302E-11 .104203725E+05 .228283070E+02                   4
AC3H5OOH    GOLDSMITH   C   3H   6O   2    0G   298.0    6000.0   1000.000    31
 1.20838649E+01 1.47946591E-02-5.13212591E-06 8.07504999E-10-4.74394983E-14    2
-1.02184463E+04-3.36434791E+01 3.18124993E+00 4.35233041E-02-5.16277353E-05    3
 4.32011427E-08-1.57714983E-11-7.63521503E+03 1.21725683E+01                   4
SC3H5OH    2/ 3/ 9      C   3H   6O   1    0G   300.000  5000.000 1404.000    21
 1.11222064E+01 1.27745410E-02-4.25315532E-06 6.48216484E-10-3.71190850E-14    2
-2.36690795E+04-3.41335182E+01-3.53977226E-02 4.34969453E-02-3.74479918E-05    3
 1.70906074E-08-3.13775054E-12-2.02502608E+04 2.41528201E+01                   4
HOC3H6O2   9/ 1/12      C   3H   7O   3    0G   300.000  5000.000 1407.000    41
 1.56948113E+01 1.57703692E-02-5.30501726E-06 8.14307835E-10-4.68666193E-14    2
-3.24540840E+04-5.06084117E+01 2.84960487E+00 4.77244552E-02-3.60392974E-05    3
 1.43479922E-08-2.33507634E-12-2.82106103E+04 1.76478537E+01                   4
NC3-OOQOOH              C   3H   7O   4     G    300.00   4000.00 1388.00      1
 .185146106E+02 .164157074E-01-.573085844E-05 .901975314E-09-.528299084E-13    2
-.231819444E+05-.618247164E+02 .254387733E+01 .570847379E-01-.472164204E-04    3
 .208289492E-07-.378162942E-11-.178600410E+05 .229447574E+02                   4
NC3H7O2                 C   3H   7O   2     G    300.00   4000.00 1388.00      1
 .127230991E+02 .167336808E-01-.575943184E-05 .897769493E-09-.522275065E-13    2
-.108816595E+05-.381965321E+02 .156301709E+01 .426192697E-01-.296615075E-04    3
 .114187326E-07-.189894471E-11-.688086375E+04 .219842933E+02                   4
NC3-QOOH                C   3H   7O   2     G    300.00   4000.00 1374.00      1
 .146139980E+02 .143723015E-01-.488635144E-05 .756519620E-09-.438364992E-13    2
-.646101457E+04-.457478245E+02 .191005011E+01 .411666833E-01-.251630217E-04    3
 .711856873E-08-.698838732E-12-.179305093E+04 .234514457E+02                   4
NC3H7                   C   3H   7          G    300.00   4000.00 1000.00      1
 .649636579E+01 .177337992E-01-.624898046E-05 .995389495E-09-.590199770E-13    2
 .885973885E+04-.856389710E+01 .408211458E+01 .523240341E-02 .513554466E-04    3
-.699343598E-07 .281819493E-10 .104074558E+05 .839534919E+01                   4
IC3-OOQOOH              C   3H   7O   4     G    300.00   4000.00 1391.00      1
 .191234208E+02 .158457151E-01-.552231946E-05 .868162288E-09-.508094203E-13    2
-.255253957E+05-.661419362E+02 .175906535E+01 .624712381E-01-.554930416E-04    3
 .257973727E-07-.483190839E-11-.200009572E+05 .251348546E+02                   4
IC3H7                   C   3H   7          G    300.00   4000.00 1000.00      1
 .530597255E+01 .189854588E-01-.674315384E-05 .107993730E-08-.642785036E-13    2
 .778748910E+04-.223233935E+01 .547421257E+01-.842536682E-02 .804607759E-04    3
-.949287824E-07 .359830971E-10 .904939013E+04 .340542323E+01                   4
CH3COCH3                C   3H   6O   1     G    300.00   4000.00 1000.00      1
 .729796974E+01 .175656913E-01-.631678065E-05 .102025553E-08-.610903592E-13    2
-.295368927E+05-.127591704E+02 .555638920E+01-.283863547E-02 .705722951E-04    3
-.878130984E-07 .340290951E-10-.278325393E+05 .231960221E+01                   4
C3H6       8/12/15      C   3H   6    0    0G   298.000  6000.000 1000.000    01
 6.59032304E+00 1.52592866E-02-5.30369441E-06 8.35510888E-10-4.91215549E-14    2
-2.47481113E+02-1.15748238E+01-1.54606737E+00 4.36553128E-02-5.61392417E-05    3
 4.98421927E-08-1.84798923E-11 2.07056233E+03 2.99232495E+01                   4
CH2OHCH2CHO             C   3H   6O   2     G    300.00   4000.00 1382.00      1
 .118936666E+02 .144153203E-01-.477525443E-05 .726036430E-09-.415285995E-13    2
-.459271652E+05-.327285750E+02 .266613285E+01 .346302298E-01-.214380719E-04    3
 .690469334E-08-.916939105E-12-.425706030E+05 .173358364E+02                   4
CH2OHCOCH3              C   3H   6O   2     G    300.00   4000.00 1000.00      1
 .110374327E+02 .169177041E-01-.598872959E-05 .957507054E-09-.569424407E-13    2
-.479270048E+05-.288076231E+02 .352624872E+01 .266034923E-01 .115090267E-04    3
-.353751170E-07 .166033210E-10-.453401970E+05 .125889401E+02                   4
NC3H7OH                 C   3H   8O   1    0G   300.000  5000.000 1400.000    31
 1.14717073E+01 1.71812521E-02-5.78165901E-06 8.87786623E-10-5.11116063E-14    2
-3.65788256E+04-3.49774412E+01-1.28694006E-01 4.25920996E-02-2.62946409E-05    3
 8.07203568E-09-9.57756657E-13-3.24028755E+04 2.78855895E+01                   4
C3H6OH1-2  9/ 1/12      C   3H   7O   1    0G   300.000  5000.000 1395.000    31
 1.00338281E+01 1.60227373E-02-5.41658448E-06 8.34191172E-10-4.81215988E-14    2
-1.27912397E+04-2.39034395E+01 5.05207596E-01 3.63869988E-02-2.15530901E-05    3
 6.45584786E-09-7.71267046E-13-9.26980840E+03 2.79804349E+01                   4
C3-OQOOH                C   3H   6O   3     G    300.00   4000.00 1391.00      1
 .170285271E+02 .130716784E-01-.459310856E-05 .726135156E-09-.426658337E-13    2
-.416334217E+05-.592513577E+02 .768933034E+00 .546905880E-01-.465072405E-04    3
 .203159585E-07-.358398999E-11-.363238861E+05 .268291637E+02                   4
C3H5OH                  C   3H   6O   1     G    300.00   4000.00 1000.00      1
 .811285474E+01 .171952419E-01-.606427393E-05 .967014746E-09-.573968013E-13    2
-.214419954E+05-.172623867E+02 .511393563E+01 .469115954E-02 .542574797E-04    3
-.729774751E-07 .290683409E-10-.196373114E+05 .316334698E+01                   4
C3H5-T     8/12/15      C   3H   5    0    0G   300.000  5000.000 1376.000    11
 7.69949212E+00 1.17803985E-02-4.07791749E-06 6.38119222E-10-3.72229675E-14    2
 2.61747145E+04-1.68305890E+01 2.29256998E+00 1.98527646E-02-6.42635654E-06    3
-5.90016395E-10 5.05491095E-13 2.85773377E+04 1.39407124E+01                   4
CHOCH2CHO               C   3H   4O   2     G    300.00   4000.00 1000.00      1
 .104962923E+02 .120559957E-01-.434149310E-05 .699425892E-09-.418003976E-13    2
-.437332461E+05-.275425657E+02 .124227207E+01 .300698605E-01-.148206586E-05    3
-.242738150E-07 .133121686E-10-.408667843E+05 .219242842E+02                   4
CH3COCH2                C   3H   5O   1     G    300.00   4000.00 1000.00      1
 .754410697E+01 .143443222E-01-.508381081E-05 .813200521E-09-.483673315E-13    2
-.748672286E+04-.114792587E+02 .470187196E+01 .551653762E-02 .427505858E-04    3
-.594680816E-07 .240685378E-10-.592845491E+04 .712932590E+01                   4
C2H3CHO                 C   3H   4O   1     G    300.00   4000.00 1000.00      1
 .820654919E+01 .128492916E-01-.464285331E-05 .751738738E-09-.451298116E-13    2
-.118838341E+05-.149881933E+02 .469868861E+01 .499965957E-02 .438587397E-04    3